@!IC, SBASE,REV,XFRRAT,NXFRAT,BASFRQ
0,   100.00, 34,     1,     1, 50.00     / PSS(R)E-34.6    MON, MAY 11 2020  11:54
PICO HÁBIL DEL INVIERNO 20 DEMANDA SADI 23700 MW

GENERAL, THRSHZ=0.0001, PQBRAK=0.7, BLOWUP=5.0
GAUSS, ITMX=100, ACCP=1.6, ACCQ=1.6, ACCM=1.0, TOL=0.0001
NEWTON, ITMXN=20, ACCN=1.0, TOLN=0.2, VCTOLQ=0.1, VCTOLV=0.00001, DVLIM=0.99, NDVFCT=0.99
ADJUST, ADJTHR=0.005, ACCTAP=1.0, TAPLIM=0.05, SWVBND=100.0, MXTPSS=99, MXSWIM=10
TYSL, ITMXTY=20, ACCTY=1.0, TOLTY=0.00001
SOLVER, FNSL, ACTAPS=1, AREAIN=0, PHSHFT=0, DCTAPS=1, SWSHNT=1, FLATST=0, VARLIM=99, NONDIV=0
RATING, 1, "RATE1 ", "RATING SET 1                    "
RATING, 2, "RATE2 ", "RATING SET 2                    "
RATING, 3, "RATE3 ", "RATING SET 3                    "
RATING, 4, "RATE4 ", "RATING SET 4                    "
RATING, 5, "RATE5 ", "RATING SET 5                    "
RATING, 6, "RATE6 ", "RATING SET 6                    "
RATING, 7, "RATE7 ", "RATING SET 7                    "
RATING, 8, "RATE8 ", "RATING SET 8                    "
RATING, 9, "RATE9 ", "RATING SET 9                    "
RATING,10, "RATE10", "RATING SET 10                   "
RATING,11, "RATE11", "RATING SET 11                   "
RATING,12, "RATE12", "RATING SET 12                   "
0 / END OF SYSTEM-WIDE DATA, BEGIN BUS DATA
@!   I,'NAME        ', BASKV, IDE,AREA,ZONE,OWNER, VM,        VA,    NVHI,   NVLO,   EVHI,   EVLO
    10,'NPMADRYN    ', 500.0000,1,  21,   6,  10,1.01272,  12.4422,1.10000,0.90000,1.10000,0.90000
    11,'NPMD.CHL    ', 500.0000,1,  21,   6,  10,0.97505,  14.5386,1.10000,0.90000,1.10000,0.90000
    12,'SCN_500     ', 500.0000,1,  21,   6,  10,0.99717,  10.3834,1.10000,0.90000,1.10000,0.90000
    15,'RSCRUZ      ', 500.0000,1,  21,   6,  10,0.98777,   8.7565,1.10000,0.90000,1.10000,0.90000
    19,'ESPERANZ    ', 500.0000,1,  21,   6,  10,0.97964,   8.0997,1.10000,0.90000,1.10000,0.90000
    20,'GARACCB1    ', 525.0000,4,  20,  49,  10,1.00000,   0.0000,1.10000,0.90000,1.10000,0.90000
    22,'GARACCB2    ', 525.0000,4,  20,  49,  10,1.00000,   0.0000,1.10000,0.90000,1.10000,0.90000
    30,'ITA         ', 525.0000,4,  20,  49,  10,1.00000,   0.0000,1.10000,0.90000,1.10000,0.90000
    85,'FOZ-500-50HZ', 500.0000,4,  20,  50,  10,1.00000,   0.0000,1.10000,0.90000,1.10000,0.90000
    86,'IBIUNA---345', 345.0000,4,  20,  50,  10,1.00000,   0.0000,1.10000,0.90000,1.10000,0.90000
   100,'FUTAL330    ', 330.0000,1,  21,  59,  10,1.01801,  27.7120,1.10000,0.90000,1.10000,0.90000
   102,'FUTAHI01    ',  13.8000,2,  21,  59,   6,1.00000,  32.0143,1.10000,0.90000,1.10000,0.90000
   104,'FUTAHI02    ',  13.8000,2,  21,  59,   6,1.00000,  32.0143,1.10000,0.90000,1.10000,0.90000
   106,'FUTAHI03    ',  13.8000,2,  21,  59,   6,1.00000,  32.0143,1.10000,0.90000,1.10000,0.90000
   108,'FUTAHI04    ',  13.8000,2,  21,  59,   6,1.01801,  27.7120,1.10000,0.90000,1.10000,0.90000
   115,'R.TURBIO    ', 220.0000,1,  21,  53,   1,1.01842,   5.5766,1.10000,0.90000,1.10000,0.90000
   117,'ESPERANZ    ', 220.0000,1,  21,   6,   1,1.01392,   6.3062,1.10000,0.90000,1.10000,0.90000
   118,'RGALLEGO    ', 220.0000,1,  21,  53,   1,1.01141,   4.4570,1.10000,0.90000,1.10000,0.90000
   190,'ALTG09CC    ',  10.5000,2,  21,  58,   8,1.03594,  18.1413,1.10000,0.90000,1.10000,0.90000
   191,'ALTG10CC    ',  10.5000,2,  21,  58,   8,1.03594,  18.1413,1.10000,0.90000,1.10000,0.90000
   192,'ALTV11CC    ',  10.5000,2,  21,  58,   8,1.03742,  17.3134,1.10000,0.90000,1.10000,0.90000
   193,'SERIE DT    ', 132.0000,1,  21,  58,   2,1.00000,  11.6070,1.10000,0.90000,1.10000,0.90000
   200,'PMADR330    ', 330.0000,1,  21,  51,   1,1.00443,  13.0756,1.10000,0.90000,1.10000,0.90000
   201,'AL-FIAT1    ',  13.2000,4,  21,  58,   4,1.00000,   0.0000,1.10000,0.90000,1.10000,0.90000
   202,'AL-FIAT2    ',  13.2000,4,  21,  58,   4,1.00000,   0.0000,1.10000,0.90000,1.10000,0.90000
   203,'AL-FIAT3    ',  13.2000,4,  21,  58,   4,1.00000,   0.0000,1.10000,0.90000,1.10000,0.90000
   204,'AL-FIAT4    ',  13.2000,4,  21,  58,   4,1.00000,   0.0000,1.10000,0.90000,1.10000,0.90000
   205,'ALUATG05    ',  11.0000,4,  21,  58,   4,1.00000,   0.0000,1.10000,0.90000,1.10000,0.90000
   206,'ALUATG06    ',  11.0000,4,  21,  58,   4,1.00000,   0.0000,1.10000,0.90000,1.10000,0.90000
   207,'ALUATG07    ',  11.0000,2,  21,  58,   8,1.02157,   5.8104,1.10000,0.90000,1.10000,0.90000
   208,'ALUATG08    ',  11.0000,2,  21,  58,   8,1.02157,   5.8104,1.10000,0.90000,1.10000,0.90000
   209,'ALUATV01    ',  11.0000,2,  21,  58,   8,1.02157,   5.8104,1.10000,0.90000,1.10000,0.90000
   210,'APPA330A    ', 330.0000,1,  21,  58,   2,1.00367,  13.0050,1.10000,0.90000,1.10000,0.90000
   211,'APPA330B    ', 330.0000,1,  21,  58,   2,1.00367,  13.0179,1.10000,0.90000,1.10000,0.90000
   212,'AL-CE0A2    ',  33.0000,1,  21,  58,   2,1.02157,   5.8104,1.10000,0.90000,1.10000,0.90000
   213,'APPA330C    ', 330.0000,1,  21,  58,   2,1.00411,  13.0152,1.10000,0.90000,1.10000,0.90000
   214,'AL-CE0B     ',  33.0000,4,  21,  58,   2,1.00000,   0.0000,1.10000,0.90000,1.10000,0.90000
   216,'AL-CE0A4    ',  33.0000,1,  21,  58,   2,1.02157,   5.8104,1.10000,0.90000,1.10000,0.90000
   217,'AL-CE0A5    ',  33.0000,1,  21,  58,   2,1.02157,   5.8104,1.10000,0.90000,1.10000,0.90000
   218,'AL-CE0A3    ',  33.0000,1,  21,  58,   2,1.02157,   5.8104,1.10000,0.90000,1.10000,0.90000
   219,'AEG         ',  13.2000,2,  21,  58,   4,1.02157,   5.8104,1.10000,0.90000,1.10000,0.90000
   220,'PMADRYN1    ', 132.0000,1,  21,  51,   1,1.03776,  12.0705,1.10000,0.90000,1.10000,0.90000
   221,'PMADRYN2    ', 132.0000,1,  21,  51,  10,1.00250,  15.5997,1.10000,0.90000,1.10000,0.90000
   222,'AL-CE0A1    ',  33.0000,1,  21,  58,   2,1.00145,  11.7602,1.10000,0.90000,1.10000,0.90000
   223,'LB ESTE     ', 132.0000,4,  21,  51,  10,1.00000,   0.0000,1.10000,0.90000,1.10000,0.90000
   224,'NPMAD330    ', 330.0000,1,  21,  51,  10,1.00452,  13.0714,1.10000,0.90000,1.10000,0.90000
   226,'LB OESTE    ', 132.0000,4,  21,  51,  10,1.00000,   0.0000,1.10000,0.90000,1.10000,0.90000
   227,'SERV AUX    ',  33.0000,1,  21,  58,   2,1.02157,   5.8104,1.10000,0.90000,1.10000,0.90000
   230,'DGPAL132    ', 132.0000,1,  21,  51,  10,1.03307,  11.8751,1.10000,0.90000,1.10000,0.90000
   240,'TRELW132    ', 132.0000,1,  21,  51,  10,1.01115,  12.5534,1.10000,0.90000,1.10000,0.90000
   242,'TREW13.2    ',  13.2000,2,  21,  51,   1,0.97327,   8.2413,1.10000,0.90000,1.10000,0.90000
   243,'RAWSON      ', 132.0000,1,  21,  51,   1,1.01573,  13.2369,1.10000,0.90000,1.10000,0.90000
   244,'TRELEW33    ',  33.0000,1,  21,  51,   1,0.98053,   9.1177,1.10000,0.90000,1.10000,0.90000
   246,'PE_PMADR    ', 132.0000,1,  21,  51,  10,1.00440,  16.3364,1.10000,0.90000,1.10000,0.90000
   250,'AMEGH132    ', 132.0000,1,  21,  51,   1,1.03964,  14.8996,1.10000,0.90000,1.10000,0.90000
   251,'AMEGHI01    ',  13.2000,2,  21,  51,   6,1.04000,  16.7546,1.10000,0.90000,1.10000,0.90000
   252,'AMEGHI02    ',  13.2000,4,  21,  51,   6,1.00000,   0.0000,1.10000,0.90000,1.10000,0.90000
   253,'PE_ALUAR    ', 132.0000,1,  21,  58,  10,1.00321,  12.8239,1.10000,0.90000,1.10000,0.90000
   254,'ALUA33_01   ',  33.0000,1,  21,  58,  10,1.00027,  15.6740,1.10000,0.90000,1.10000,0.90000
   255,'ALUAR33_03  ',  33.0000,1,  21,  58,  10,0.99915,  15.7700,1.10000,0.90000,1.10000,0.90000
   256,'ALUA33_02   ',  33.0000,1,  21,  58,  10,1.00225,  15.8052,1.10000,0.90000,1.10000,0.90000
   257,'ALUAR33_04  ',  33.0000,1,  21,  58,  10,1.00188,  15.9239,1.10000,0.90000,1.10000,0.90000
   258,'PER-132     ', 132.0000,1,  21,  51,   1,1.01854,  13.6826,1.10000,0.90000,1.10000,0.90000
   259,'AL-CEB      ', 132.0000,1,  21,  58,   2,1.00000,  11.6070,1.10000,0.90000,1.10000,0.90000
   261,'AL-CEA      ', 132.0000,1,  21,  58,   2,1.00000,  11.6070,1.10000,0.90000,1.10000,0.90000
   264,'FUTAL132    ', 132.0000,1,  21,  59,  10,1.03869,  26.0584,1.10000,0.90000,1.10000,0.90000
   265,'AL-CEB0C    ',  33.0000,1,  21,  58,   2,1.00041,  11.7586,1.10000,0.90000,1.10000,0.90000
   266,'ESQUE132    ', 132.0000,1,  21,  59,  10,1.02906,  25.4466,1.10000,0.90000,1.10000,0.90000
   268,'SERIE AT    ', 132.0000,1,  21,  58,   2,1.00000,  11.6070,1.10000,0.90000,1.10000,0.90000
   269,'SERIE BT    ', 132.0000,1,  21,  58,   2,1.00000,  11.6070,1.10000,0.90000,1.10000,0.90000
   271,'ELCOIHUE    ', 132.0000,1,  21,  59,   1,1.00069,  24.5611,1.10000,0.90000,1.10000,0.90000
   272,'CHUBUNOR2   ', 132.0000,1,  21,  51,  10,1.00134,  16.3295,1.10000,0.90000,1.10000,0.90000
   273,'PMADRYN2    ', 132.0000,4,  21,  51,  10,1.00000,   0.0000,1.10000,0.90000,1.10000,0.90000
   275,'LB          ', 132.0000,1,  21,  51,  10,1.00776,  18.2196,1.10000,0.90000,1.10000,0.90000
   280,'GOLONDRI    ',  13.2000,1,  21,  59,  10,0.97807,  21.1465,1.10000,0.90000,1.10000,0.90000
   281,'LIMRN-CH    ',  13.2000,1,  21,  59,  10,0.93908,  21.7488,1.10000,0.90000,1.10000,0.90000
   282,'ELBOLSON    ',  13.2000,1,  21,  59,   1,0.91007,  22.2316,1.10000,0.90000,1.10000,0.90000
   300,'SGRAN132    ', 132.0000,1,  21,  51,   1,1.03383,   8.8873,1.10000,0.90000,1.10000,0.90000
   304,'SGRA13.2    ',  13.2000,4,  21,  51,   4,1.00000,   0.0000,1.10000,0.90000,1.10000,0.90000
   310,'PCOLO132    ', 132.0000,1,  21,  51,  10,1.03402,   8.8542,1.10000,0.90000,1.10000,0.90000
   311,'MALASPINA   ', 132.0000,1,  21,  51,  10,1.04212,  16.2422,1.10000,0.90000,1.10000,0.90000
   315,'RSCRUZ      ', 132.0000,1,  21,  53,   1,1.01258,   8.3649,1.10000,0.90000,1.10000,0.90000
   316,'S.JULIAN    ', 132.0000,4,  21,  53,   1,1.00000,   0.0000,1.10000,0.90000,1.10000,0.90000
   317,'M.ESPEJO    ', 132.0000,4,  21,  53,   1,1.00000,   0.0000,1.10000,0.90000,1.10000,0.90000
   318,'GREGORES    ', 132.0000,4,  21,  53,   1,1.00000,   0.0000,1.10000,0.90000,1.10000,0.90000
   320,'SANOE132    ', 132.0000,1,  21,  51,   1,1.02692,   7.2237,1.10000,0.90000,1.10000,0.90000
   322,'SANES132    ', 132.0000,1,  21,  51,   1,1.02656,   7.1426,1.10000,0.90000,1.10000,0.90000
   330,'VIEDM132    ', 132.0000,1,  21,  51,   1,0.96863,   0.6648,1.10000,0.90000,1.10000,0.90000
   332,'VIED13.2    ',  13.2000,1,  21,  51,   1,0.99224,  -4.1320,1.10000,0.90000,1.10000,0.90000
   334,'VIEDMA33    ',  33.0000,1,  21,  51,  10,1.00280,  -2.4303,1.10000,0.90000,1.10000,0.90000
   400,'C.RIV.A1    ', 132.0000,1,  21,  52,  10,1.01249,  15.4429,1.10000,0.90000,1.10000,0.90000
   401,'C.RIV.A     ', 132.0000,1,  21,  52,  10,1.01241,  15.4370,1.10000,0.90000,1.10000,0.90000
   402,'GARAYALDE   ', 132.0000,1,  21,  51,  10,1.04607,  16.3349,1.10000,0.90000,1.10000,0.90000
   403,'HERCULES    ', 132.0000,1,  21,  52,  10,1.00938,   9.7086,1.10000,0.90000,1.10000,0.90000
   404,'ESCALANT    ', 132.0000,1,  21,  52,  10,1.02011,  17.8527,1.10000,0.90000,1.10000,0.90000
   405,'PE_MBEHR    ', 132.0000,1,  21,  52,  10,1.02585,  19.4296,1.10000,0.90000,1.10000,0.90000
   406,'CRIVTG26    ',  13.2000,2,  21,  52,   4,1.01241,  15.4370,1.10000,0.90000,1.10000,0.90000
   407,'GARA33_01   ',  33.0000,1,  21,  51,  10,1.04221,  18.5238,1.10000,0.90000,1.10000,0.90000
   408,'C.RIV.A1    ',  10.4000,1,  21,  52,   1,0.99226,  12.4448,1.10000,0.90000,1.10000,0.90000
   409,'CRIVTG21    ',  10.4000,2,  21,  52,   4,0.99226,  12.4448,1.10000,0.90000,1.10000,0.90000
   410,'C.RIV.A1    ',  66.0000,2,  21,  52,   1,0.98645,  14.1826,1.10000,0.90000,1.10000,0.90000
   413,'BICE33_02   ',  33.0000,1,  21,  51,  10,1.01099,  21.2596,1.10000,0.90000,1.10000,0.90000
   415,'GARA13_01   ',  13.2000,1,  21,  51,  10,1.04199,  18.6842,1.10000,0.90000,1.10000,0.90000
   416,'SEBER1      ',  66.0000,1,  21,  52,   1,0.99992,  15.9142,1.10000,0.90000,1.10000,0.90000
   417,'SEBER1_35   ',  35.0000,1,  21,  52,  10,0.98732,  18.9010,1.10000,0.90000,1.10000,0.90000
   418,'SEBER2      ',  35.0000,1,  21,  52,   1,0.99205,  19.4306,1.10000,0.90000,1.10000,0.90000
   420,'C.RIV.A1    ',  33.0000,2,  21,  52,   1,0.99566,  13.0956,1.10000,0.90000,1.10000,0.90000
   422,'CRIVTG23    ',  13.8000,2,  21,  52,   4,0.99204,  12.3917,1.10000,0.90000,1.10000,0.90000
   423,'MB_ALL_35   ',  35.0000,1,  21,  52,  10,0.99205,  19.4306,1.10000,0.90000,1.10000,0.90000
   424,'MB_JEN_35   ',  35.0000,1,  21,  52,  10,0.99205,  19.4306,1.10000,0.90000,1.10000,0.90000
   437,'CRIVTG78    ',  13.8000,2,  21,  52,   8,1.01241,  15.4370,1.10000,0.90000,1.10000,0.90000
   438,'CRIVTV25    ',  13.8000,2,  21,  52,   8,1.01241,  15.4370,1.10000,0.90000,1.10000,0.90000
   440,'VHERM132    ', 132.0000,2,  21,  52,   1,1.00478,  17.0314,1.10000,0.90000,1.10000,0.90000
   441,'SAN JOSE    ', 132.0000,1,  21,  52,   1,0.96059,   6.2910,1.10000,0.90000,1.10000,0.90000
   442,'CNEGR132    ', 132.0000,2,  21,  52,   1,0.99837,  16.6958,1.10000,0.90000,1.10000,0.90000
   444,'PAMCA132    ', 132.0000,2,  21,  52,   1,1.01156,  17.4744,1.10000,0.90000,1.10000,0.90000
   445,'TORDI132    ', 132.0000,2,  21,  52,   1,1.00955,  17.3707,1.10000,0.90000,1.10000,0.90000
   446,'LPER1132    ', 132.0000,1,  21,  52,   1,1.02023,  11.4834,1.10000,0.90000,1.10000,0.90000
   447,'LPER2132    ', 132.0000,4,  21,  52,   1,1.00000,   0.0000,1.10000,0.90000,1.10000,0.90000
   448,'LASHE132    ', 132.0000,2,  21,  52,   1,0.98515,   8.7505,1.10000,0.90000,1.10000,0.90000
   449,'DIADEMA     ', 132.0000,1,  21,  52,   1,1.02099,  17.3897,1.10000,0.90000,1.10000,0.90000
   450,'BSM132R     ', 132.0000,2,  21,  52,   1,1.01405,  15.7546,1.10000,0.90000,1.10000,0.90000
   451,'DIAD33_01   ',  33.0000,1,  21,  52,  10,0.98480,  20.9904,1.10000,0.90000,1.10000,0.90000
   453,'DIADEO01    ',   0.4000,2,  21,  52,  11,1.03000,  22.9204,1.10000,0.90000,1.10000,0.90000
   454,'C.OLIVIA    ', 132.0000,4,  21,  52,   1,1.00000,   0.0000,1.10000,0.90000,1.10000,0.90000
   455,'AIKE        ', 132.0000,1,  21,  52,   1,0.96913,   6.9850,1.10000,0.90000,1.10000,0.90000
   456,'ABASOLO     ', 132.0000,1,  21,  52,   1,1.01707,  15.9430,1.10000,0.90000,1.10000,0.90000
   457,'OROPLATA    ', 132.0000,1,  21,  52,   1,0.95681,   5.6466,1.10000,0.90000,1.10000,0.90000
   458,'C.LEON      ', 132.0000,4,  21,  52,  10,1.00000,   0.0000,1.10000,0.90000,1.10000,0.90000
   459,'PT1-132R    ', 132.0000,2,  21,  52,   1,1.02618,  10.5541,1.10000,0.90000,1.10000,0.90000
   460,'PT1-132M    ', 132.0000,1,  21,  52,   1,1.02618,  10.5541,1.10000,0.90000,1.10000,0.90000
   461,'SCN_132     ', 132.0000,1,  21,  52,  10,1.02773,  10.4867,1.10000,0.90000,1.10000,0.90000
   462,'PTRUN235    ',  35.0000,1,  21,  52,   1,1.00088,  10.2690,1.10000,0.90000,1.10000,0.90000
   463,'PTRUN35R    ',  35.0000,2,  21,  52,   1,1.00088,  10.2690,1.10000,0.90000,1.10000,0.90000
   464,'PTR1TG24    ',  13.8000,2,  21,  52,   4,0.96173,  10.2611,1.10000,0.90000,1.10000,0.90000
   465,'K.KAIKE     ', 132.0000,1,  21,  52,  10,1.01780,  10.0592,1.10000,0.90000,1.10000,0.90000
   466,'PTR1TG25    ',  10.5000,2,  21,  52,   4,0.96125,  10.2553,1.10000,0.90000,1.10000,0.90000
   467,'PCR         ', 132.0000,1,  21,  52,   1,1.02597,  10.6493,1.10000,0.90000,1.10000,0.90000
   468,'PTR1TG23    ',  10.5000,2,  21,  52,   4,1.00088,  10.2690,1.10000,0.90000,1.10000,0.90000
   470,'PT2--132    ', 132.0000,1,  21,  52,  10,1.02628,  10.5519,1.10000,0.90000,1.10000,0.90000
   472,'PT2-6.9     ',  35.0000,1,  21,  52,   1,1.02628,  10.5519,1.10000,0.90000,1.10000,0.90000
   474,'ELCORDON    ',  35.0000,1,  21,  52,   1,1.02151,  13.4370,1.10000,0.90000,1.10000,0.90000
   475,'HUEMUL      ',  35.0000,4,  21,  52,   1,1.00000,   0.0000,1.10000,0.90000,1.10000,0.90000
   476,'HUEMDI01    ',   0.4000,4,  21,  52,   1,1.00000,   0.0000,1.10000,0.90000,1.10000,0.90000
   477,'MESESPI     ',  35.0000,1,  21,  52,   1,1.02858,  15.9744,1.10000,0.90000,1.10000,0.90000
   478,'MESEDI01    ',   0.4000,2,  21,  52,   4,1.00000,  22.1758,1.10000,0.90000,1.10000,0.90000
   479,'SCN_TER1    ',  33.0000,1,  21,   6,  10,1.03155,  10.4775,1.10000,0.90000,1.10000,0.90000
   480,'PDES132M    ', 132.0000,1,  21,  52,   1,1.01927,  16.8992,1.10000,0.90000,1.10000,0.90000
   481,'PDES132R    ', 132.0000,4,  21,  52,   1,1.00000,   0.0000,1.10000,0.90000,1.10000,0.90000
   482,'C.MORO      ', 132.0000,4,  21,  52,   1,1.00000,   0.0000,1.10000,0.90000,1.10000,0.90000
   483,'PS.A.BIEDMA ', 132.0000,1,  21,  52,   1,1.02424,  17.2551,1.10000,0.90000,1.10000,0.90000
   484,'SCN_TER2    ',  33.0000,1,  21,   6,  10,1.03093,  10.4790,1.10000,0.90000,1.10000,0.90000
   490,'CTPAT132    ', 132.0000,1,  21,  52,  10,1.02002,  16.1492,1.10000,0.90000,1.10000,0.90000
   491,'PATATG01    ',  11.5000,2,  21,  52,   8,1.05000,  19.7562,1.10000,0.90000,1.10000,0.90000
   492,'PATATG02    ',  11.5000,2,  21,  52,   8,1.05000,  19.7562,1.10000,0.90000,1.10000,0.90000
   493,'PATATV01    ',  11.5000,2,  21,  52,   8,1.05000,  17.8867,1.10000,0.90000,1.10000,0.90000
   494,'CHUBUNOR    ', 132.0000,1,  21,  51,  10,1.03567,  12.2974,1.10000,0.90000,1.10000,0.90000
   495,'PEBICENT    ', 132.0000,1,  21,  52,  10,1.02685,  17.7806,1.10000,0.90000,1.10000,0.90000
   500,'HERC33_1    ',  33.0000,4,  21,   6,  10,1.00000,   0.0000,1.10000,0.90000,1.10000,0.90000
   501,'PM33_01     ',  33.0000,1,  21,   6,  10,1.00266,  13.1366,1.10000,0.90000,1.10000,0.90000
   502,'HERC33_2    ',  33.0000,4,  21,   6,  10,1.00000,   0.0000,1.10000,0.90000,1.10000,0.90000
   503,'HERC13_1    ',  13.2000,4,  21,   6,  10,1.00000,   0.0000,1.10000,0.90000,1.10000,0.90000
   504,'RSCRUZ      ',  33.0000,1,  21,   6,   1,1.01233,   8.3229,1.10000,0.90000,1.10000,0.90000
   505,'HERC13_2    ',  13.2000,4,  21,   6,  10,1.00000,   0.0000,1.10000,0.90000,1.10000,0.90000
   506,'KKAI33_1    ',  33.0000,4,  21,  52,  11,1.00000,   0.0000,1.10000,0.90000,1.10000,0.90000
   508,'LBVI33_02   ',  33.0000,4,  21,  51,  10,1.00000,   0.0000,1.10000,0.90000,1.10000,0.90000
   510,'PM33_02     ',  33.0000,1,  21,  51,  10,1.03484,  12.1939,1.10000,0.90000,1.10000,0.90000
   511,'PM33_01     ',  33.0000,1,  21,  51,  10,1.03612,  12.0148,1.10000,0.90000,1.10000,0.90000
   512,'C.LEON33_01 ',  33.0000,4,  21,  52,  10,1.00000,   0.0000,1.10000,0.90000,1.10000,0.90000
   513,'C.LEON33_02 ',  33.0000,4,  21,  52,  10,1.00000,   0.0000,1.10000,0.90000,1.10000,0.90000
   514,'CRITER10    ',  13.2000,1,  21,  52,  10,0.98238,  13.9774,1.10000,0.90000,1.10000,0.90000
   515,'CRITER11    ',  13.2000,1,  21,  52,  10,0.98372,  14.0452,1.10000,0.90000,1.10000,0.90000
   516,'ESQ1.TER    ',  13.2000,1,  21,  59,  10,0.99716,  20.5443,1.10000,0.90000,1.10000,0.90000
   517,'BICE33_01   ',  33.0000,1,  21,  51,  10,1.00831,  21.0736,1.10000,0.90000,1.10000,0.90000
   518,'FUTA33_01   ',  33.0000,4,  21,  59,  10,1.00000,   0.0000,1.10000,0.90000,1.10000,0.90000
   519,'KOST33_01   ',  33.0000,1,  21,  52,  10,1.00169,  19.5702,1.10000,0.90000,1.10000,0.90000
   520,'ESQUEL33    ',  33.0000,1,  21,  59,   1,0.99805,  20.7039,1.10000,0.90000,1.10000,0.90000
   521,'BICE33_03   ',  33.0000,1,  21,  51,  10,1.01138,  21.2527,1.10000,0.90000,1.10000,0.90000
   522,'ELCOIHUE    ',  33.0000,1,  21,  59,   1,0.94003,  20.7924,1.10000,0.90000,1.10000,0.90000
   523,'RTURTV01    ',  11.0000,4,  21,  53,   5,1.00000,   0.0000,1.10000,0.90000,1.10000,0.90000
   524,'GOLONDRI    ',  33.0000,1,  21,  59,   1,0.94418,  22.1331,1.10000,0.90000,1.10000,0.90000
   525,'RTURTV02    ',  11.0000,4,  21,  53,   5,1.00000,   0.0000,1.10000,0.90000,1.10000,0.90000
   526,'CHNO33_01   ',  33.0000,1,  21,  51,  10,1.02647,  12.8644,1.10000,0.90000,1.10000,0.90000
   527,'ELBOLSON    ',  33.0000,1,  21,  59,  10,0.97204,  22.2941,1.10000,0.90000,1.10000,0.90000
   528,'R.ESCONDIDO ',  33.0000,1,  21,  59,  10,1.00436,  24.0190,1.10000,0.90000,1.10000,0.90000
   532,'LBVI33_03   ',  33.0000,4,  21,  51,  10,1.00000,   0.0000,1.10000,0.90000,1.10000,0.90000
   533,'PEM33_01    ',  33.0000,1,  21,  51,  10,1.00113,  18.9227,1.10000,0.90000,1.10000,0.90000
   542,'PM33_02     ',  33.0000,1,  21,  51,  10,1.00182,  15.8548,1.10000,0.90000,1.10000,0.90000
   544,'DIAD33_02   ',  33.0000,1,  21,  52,  10,0.98480,  20.9904,1.10000,0.90000,1.10000,0.90000
   545,'ESP.TER1    ',  33.0000,1,  21,   6,   1,1.00224,   6.1608,1.10000,0.90000,1.10000,0.90000
   546,'ESP.TER2    ',  33.0000,1,  21,   6,   1,1.06467,   5.4443,1.10000,0.90000,1.10000,0.90000
   547,'RGALLEGO    ',  33.0000,4,  21,  53,   1,1.00000,   0.0000,1.10000,0.90000,1.10000,0.90000
   548,'RGA.TER1    ',  13.2000,4,  21,  53,   1,1.00000,   0.0000,1.10000,0.90000,1.10000,0.90000
   549,'KOST33_02   ',  33.0000,1,  21,  52,  10,1.00832,  19.7728,1.10000,0.90000,1.10000,0.90000
   550,'CHNO33_02   ',  33.0000,4,  21,  51,  10,1.00000,   0.0000,1.10000,0.90000,1.10000,0.90000
   551,'MALAS33_01  ',  33.0000,4,  21,  51,  10,1.00000,   0.0000,1.10000,0.90000,1.10000,0.90000
   552,'MALAS33_02  ',  33.0000,4,  21,  51,  10,1.00000,   0.0000,1.10000,0.90000,1.10000,0.90000
   553,'DIAD33_03   ',  33.0000,1,  21,  52,  10,0.99277,  21.5369,1.10000,0.90000,1.10000,0.90000
   554,'SCN_TER3    ',  33.0000,4,  21,   6,  10,1.00000,   0.0000,1.10000,0.90000,1.10000,0.90000
   556,'R.TURBIO33  ',  33.0000,1,  21,  53,   1,1.01092,   4.7186,1.10000,0.90000,1.10000,0.90000
   557,'R.TURBIO13  ',  13.2000,1,  21,  53,  10,1.01033,   4.6493,1.10000,0.90000,1.10000,0.90000
   558,'CHNO33_03   ',  33.0000,1,  21,  51,  10,0.99246,  18.5058,1.10000,0.90000,1.10000,0.90000
   559,'CHNO33_04   ',  33.0000,1,  21,  51,  10,0.99545,  18.7183,1.10000,0.90000,1.10000,0.90000
   560,'PELB33_01   ',  33.0000,4,  21,  51,  10,1.00000,   0.0000,1.10000,0.90000,1.10000,0.90000
   561,'PELB33_02   ',  33.0000,4,  21,  51,  10,1.00000,   0.0000,1.10000,0.90000,1.10000,0.90000
   562,'PELB33_05   ',  33.0000,4,  21,  51,  10,1.00000,   0.0000,1.10000,0.90000,1.10000,0.90000
   563,'PELB33_06   ',  33.0000,4,  21,  51,  10,1.00000,   0.0000,1.10000,0.90000,1.10000,0.90000
   564,'PELB33_03   ',  33.0000,1,  21,  51,  10,1.00265,  22.3607,1.10000,0.90000,1.10000,0.90000
   565,'PELB33_04   ',  33.0000,1,  21,  51,  10,1.00560,  22.5165,1.10000,0.90000,1.10000,0.90000
   566,'PELB33_07   ',  33.0000,1,  21,  51,  10,1.00110,  20.9410,1.10000,0.90000,1.10000,0.90000
   567,'PELB33_08   ',  33.0000,1,  21,  51,  10,1.00261,  21.2216,1.10000,0.90000,1.10000,0.90000
   568,'LBVI33_01   ',  33.0000,4,  21,  51,  10,1.00000,   0.0000,1.10000,0.90000,1.10000,0.90000
   570,'PER-33      ',  33.0000,1,  21,  51,  10,0.97062,  16.6699,1.10000,0.90000,1.10000,0.90000
   571,'PER-33      ',  33.0000,1,  21,  51,  10,0.97320,  16.7955,1.10000,0.90000,1.10000,0.90000
   572,'LBVI33_04   ',  33.0000,4,  21,  51,  10,1.00000,   0.0000,1.10000,0.90000,1.10000,0.90000
   578,'BEHR33_1    ',  33.0000,1,  21,  52,  10,1.02274,  22.4346,1.10000,0.90000,1.10000,0.90000
   579,'FUTA33_02   ',  33.0000,1,  21,  59,  10,1.04212,  26.6420,1.10000,0.90000,1.10000,0.90000
   580,'CHNO33_03   ',  33.0000,4,  21,  51,  10,1.00000,   0.0000,1.10000,0.90000,1.10000,0.90000
   598,'ALUAR33_05  ',  33.0000,1,  21,  58,  10,0.99871,  15.7696,1.10000,0.90000,1.10000,0.90000
   599,'ALUAR33_06  ',  33.0000,1,  21,  58,  10,1.00197,  15.9554,1.10000,0.90000,1.10000,0.90000
   601,'CHN3EO01    ',   0.7000,4,  21,  51,  11,1.00000,   0.0000,1.10000,0.90000,1.10000,0.90000
   602,'MAL1EO01    ',   0.6000,4,  21,  51,  11,1.00000,   0.0000,1.10000,0.90000,1.10000,0.90000
   603,'KKAIEO01    ',   0.7000,4,  21,  51,  11,1.00000,   0.0000,1.10000,0.90000,1.10000,0.90000
   604,'LEONEO01    ',   0.7000,4,  21,  52,  11,1.00000,   0.0000,1.10000,0.90000,1.10000,0.90000
   605,'LOM6EO01    ',   0.7000,4,  21,  51,  11,1.00000,   0.0000,1.10000,0.90000,1.10000,0.90000
   607,'MANBDI01    ',  10.4000,2,  21,  52,   4,1.00000,  21.1635,1.10000,0.90000,1.10000,0.90000
   608,'CHN4EO01    ',   0.7000,2,  21,  51,  11,1.00000,  20.8227,1.10000,0.90000,1.10000,0.90000
   609,'CHN2EO01    ',   0.7000,4,  21,  51,  11,1.00000,   0.0000,1.10000,0.90000,1.10000,0.90000
   618,'MANBDI02    ',   0.4000,2,  21,  52,   7,1.00000,  21.7467,1.10000,0.90000,1.10000,0.90000
   650,'GARAEO01    ',   0.7000,2,  21,  51,  11,1.04000,  20.5631,1.10000,0.90000,1.10000,0.90000
   651,'CHNOEO01    ',   0.7000,2,  21,  51,  11,1.00000,  14.5916,1.10000,0.90000,1.10000,0.90000
   652,'LHEREO01    ',   0.7000,4,  21,  51,  11,1.00000,   0.0000,1.10000,0.90000,1.10000,0.90000
   653,'LHEREO02    ',   0.7000,4,  21,  51,  11,1.00000,   0.0000,1.10000,0.90000,1.10000,0.90000
   654,'BICEEO01    ',   0.7000,2,  21,  51,  11,1.00000,  23.5372,1.10000,0.90000,1.10000,0.90000
   656,'ALU1EO01    ',   0.7000,2,  21,  58,  11,1.00000,  18.1027,1.10000,0.90000,1.10000,0.90000
   657,'ALUAEO02    ',   0.7000,2,  21,  58,  11,1.00000,  17.5581,1.10000,0.90000,1.10000,0.90000
   658,'BIC2EO01    ',   0.7000,2,  21,  51,  11,1.00000,  23.2561,1.10000,0.90000,1.10000,0.90000
   659,'DIA2EO01    ',   0.4000,2,  21,  52,  11,1.00000,  23.6810,1.10000,0.90000,1.10000,0.90000
   661,'YPFATG01    ',  11.0000,2,  21,  52,   4,1.05000,  16.2384,1.10000,0.90000,1.10000,0.90000
   662,'YPFATG02    ',  11.0000,2,  21,  52,   4,1.05000,  16.2384,1.10000,0.90000,1.10000,0.90000
   663,'RESCHI01    ',   0.4000,2,  21,  59,   6,1.00000,  27.4438,1.10000,0.90000,1.10000,0.90000
   664,'KOSTEO01    ',   0.5800,2,  21,  51,  11,1.00000,  21.8668,1.10000,0.90000,1.10000,0.90000
   665,'ALUAEO01    ',   0.7000,2,  21,  58,  11,1.00000,  17.5895,1.10000,0.90000,1.10000,0.90000
   670,'RCHITG01    ',  10.5000,4,  21,  53,   4,1.00000,   0.0000,1.10000,0.90000,1.10000,0.90000
   671,'RCHITG02    ',  10.5000,4,  21,  53,   4,1.00000,   0.0000,1.10000,0.90000,1.10000,0.90000
   673,'RCHITG03    ',  13.2000,4,  21,  53,   4,1.00000,   0.0000,1.10000,0.90000,1.10000,0.90000
   674,'RCHITG04    ',  13.2000,4,  21,  53,   4,1.00000,   0.0000,1.10000,0.90000,1.10000,0.90000
   675,'RAW_EOL     ',   0.6900,2,  21,  51,  11,1.01462,  18.8221,1.10000,0.90000,1.10000,0.90000
   676,'RAW_EO02    ',   0.6900,2,  21,  51,  11,0.99451,  19.2280,1.10000,0.90000,1.10000,0.90000
   679,'PMA1EO01    ',   0.7000,2,  21,  51,  11,1.00000,  21.0479,1.10000,0.90000,1.10000,0.90000
   680,'PMA2EO01    ',   0.7000,2,  21,  51,  11,1.00000,  20.9467,1.10000,0.90000,1.10000,0.90000
   684,'LOM1EO01    ',   0.7000,4,  21,  51,  11,1.00000,   0.0000,1.10000,0.90000,1.10000,0.90000
   685,'LOM3EO01    ',   0.7000,4,  21,  51,  11,1.00000,   0.0000,1.10000,0.90000,1.10000,0.90000
   686,'LOM2EO01    ',   0.7000,2,  21,  51,  11,1.00000,  24.7961,1.10000,0.90000,1.10000,0.90000
   687,'LBLAEO04    ',   0.6000,2,  21,  51,  11,1.00000,  22.5992,1.10000,0.90000,1.10000,0.90000
   688,'LOM6EO02    ',   0.7000,4,  21,  51,  11,1.00000,   0.0000,1.10000,0.90000,1.10000,0.90000
   691,'BEHREO01    ',   0.7000,2,  21,  52,  11,1.04468,  25.0095,1.10000,0.90000,1.10000,0.90000
   692,'BEHREO02    ',   0.7000,2,  21,  52,  11,1.00000,  25.1246,1.10000,0.90000,1.10000,0.90000
   720,'ESPERANZ    ', 132.0000,1,  21,  53,   1,1.03229,   5.5259,1.10000,0.90000,1.10000,0.90000
   721,'CALAFATE    ', 132.0000,1,  21,  53,   1,1.01469,   3.1249,1.10000,0.90000,1.10000,0.90000
  1000,'CHOCON      ', 500.0000,1,   7,   2,  10,1.02602,  14.3494,1.10000,0.90000,1.10000,0.90000
  1002,'P.AGUILA    ', 500.0000,1,   7,   2,  10,1.02693,  17.9544,1.10000,0.90000,1.10000,0.90000
  1004,'CHOCONOE    ', 500.0000,1,   7,   2,  10,1.02636,  14.3437,1.10000,0.90000,1.10000,0.90000
  1006,'CHOE.CH     ', 500.0000,1,   2,   2,  10,0.99981,   6.9535,1.10000,0.90000,1.10000,0.90000
  1007,'CHOE.PA     ', 500.0000,1,   2,   2,  10,1.01313,   6.9278,1.10000,0.90000,1.10000,0.90000
  1008,'CH.CHOEL    ', 500.0000,1,   2,   2,  10,1.00551,  11.3677,1.10000,0.90000,1.10000,0.90000
  1010,'CHOE.BB1    ', 500.0000,1,   2,   2,  10,0.99443,  17.6481,1.10000,0.90000,1.10000,0.90000
  1011,'CHOE.BB2    ', 500.0000,1,   2,   2,  10,0.99391,  15.7235,1.10000,0.90000,1.10000,0.90000
  1012,'C.COSTA     ', 500.0000,1,   7,   2,  10,1.02864,  11.9566,1.10000,0.90000,1.10000,0.90000
  1014,'T.AGUI1     ', 500.0000,1,   7,   2,  10,1.02703,  17.8208,1.10000,0.90000,1.10000,0.90000
  1016,'ALICURA     ', 500.0000,1,   7,   2,  10,1.01771,  18.6456,1.10000,0.90000,1.10000,0.90000
  1018,'C.H.CHOC    ', 500.0000,1,   7,   2,  10,1.02596,  14.3726,1.10000,0.90000,1.10000,0.90000
  1020,'L.LATA      ', 500.0000,1,   7,   2,  10,1.02475,  14.0102,1.10000,0.90000,1.10000,0.90000
  1022,'PPLEUFU     ', 500.0000,1,   7,   2,  10,1.02713,  17.9718,1.10000,0.90000,1.10000,0.90000
  1024,'P.BAND.     ', 500.0000,1,   7,   2,  10,1.02591,  13.1648,1.10000,0.90000,1.10000,0.90000
  1025,'A.CAJON     ', 500.0000,1,   7,   2,  10,1.02706,  13.5600,1.10000,0.90000,1.10000,0.90000
  1026,'PUELCHE1    ', 500.0000,1,   1,   2,  10,1.02473,   1.6964,1.10000,0.90000,1.10000,0.90000
  1028,'PUELCHE2    ', 500.0000,1,   1,   2,  10,1.00316,  11.8119,1.10000,0.90000,1.10000,0.90000
  1030,'MACACHIN    ', 500.0000,1,   1,   2,  10,1.00819,   0.5578,1.10000,0.90000,1.10000,0.90000
  1200,'ACAJON 1    ', 132.0000,1,   7,  27,  10,1.03295,  18.9735,1.10000,0.90000,1.10000,0.90000
  1201,'ELSOLITO    ', 132.0000,4,   7,  26,   1,1.00000,   0.0000,1.10000,0.90000,1.10000,0.90000
  1202,'ACAJON 2    ', 132.0000,1,   7,  27,  10,1.01766,  15.0969,1.10000,0.90000,1.10000,0.90000
  1203,'ACAJON 3    ', 132.0000,1,   7,  27,  10,1.01247,  21.1436,1.10000,0.90000,1.10000,0.90000
  1204,'ALICURA     ', 132.0000,1,   7,  27,  10,1.04316,  14.2104,1.10000,0.90000,1.10000,0.90000
  1205,'G.CONESA    ', 132.0000,4,   7,  26,   1,1.00000,   0.0000,1.10000,0.90000,1.10000,0.90000